  14
        -22.68187449
 C         -0.0332379283        0.7993942696       -0.5076443970
 C         -1.2461431848       -0.1282377977       -0.6918939175
 C          1.2858853514        0.0095805118       -0.6493826778
 O         -0.0917962686        1.3935567481        0.7706674103
 O          1.4328456448       -0.9389516545        0.3852062700
 O         -1.3669181516       -0.9917167389        0.4108894846
 H         -0.5408539969       -1.4993578315        0.4728706839
 H         -0.6544079074        0.8196968582        1.3148640607
 H          1.4763724612       -0.4464156985        1.2156337924
 H         -0.0489065354        1.5988050452       -1.2562680979
 H         -2.1661000732        0.4616405950       -0.7177970185
 H         -1.1543291552       -0.6845668727       -1.6332795870
 H          2.1279096768        0.7120108607       -0.6457946731
 H          1.2934462761       -0.5479503242       -1.5876937315
  14
        -22.68040256
 C         -0.0138579456        0.6951269443       -0.2576160323
 C         -1.2653953340       -0.0424754592        0.2613744358
 C          1.2725967478        0.0473730210        0.2882068054
 O         -0.0800811114        2.0634431139        0.0605114107
 O          1.4688000366       -1.2555232566       -0.1850807100
 O         -1.3326064060       -1.3828784631       -0.1699445492
 H         -1.4376103700       -1.3983064202       -1.1282416401
 H         -0.0133098663        2.1671846049        1.0169850823
 H          0.6626405414       -1.7625417731       -0.0022627765
 H          0.0042979891        0.6510804986       -1.3534316691
 H         -1.2432693645       -0.0860101568        1.3550955944
 H         -2.1584743648        0.5179150126       -0.0449397194
 H          1.2374986864        0.0634955960        1.3912623535
 H          2.1368218102        0.6319811063       -0.0386633349
  14
        -22.67978901
 C         -0.0352751666        0.5204276592       -0.3909608581
 C         -0.9535589501       -0.7098850912       -0.3698827033
 C          1.4106079426        0.1341208417       -0.7299034962
 O         -0.0301028051        1.1239410671        0.8856520355
 O          1.9489437574       -0.7133552259        0.2460492415
 O         -2.2164679181       -0.3777916265        0.1621600358
 H         -2.6784363150        0.1982725152       -0.4576777144
 H         -0.8886242640        0.9345944681        1.2918737397
 H          1.7866669221       -0.2864228456        1.0987234027
 H         -0.4036842834        1.2436586879       -1.1396316256
 H         -1.0367049193       -1.1381749617       -1.3750545908
 H         -0.5325723040       -1.4605937110        0.3030209061
 H          2.0065827162        1.0532327954       -0.8169195527
 H          1.4450832449       -0.4057039383       -1.6780638826
  14
        -22.67947645
 C         -0.0485054746        0.6818131978       -0.2739112231
 C         -1.2739044903       -0.0625625054        0.2877845987
 C          1.2561993558        0.0797379283        0.2717429945
 O         -0.0459009188        2.0418597811        0.0912096810
 O          1.4503010606       -1.2569113607       -0.1284582612
 O         -1.3557505073       -1.3797905891       -0.1814162685
 H         -0.5129256982       -1.8152899440        0.0196992161
 H         -0.8847142671        2.4393740087       -0.1679305548
 H          1.5871017843       -1.2820098942       -1.0826486887
 H         -0.0565260743        0.5778836554       -1.3744156765
 H         -1.2342829696       -0.0310055147        1.3870323401
 H         -2.1928993995        0.4360993503       -0.0391006015
 H          1.2192216376        0.0696109278        1.3632290572
 H          2.0917832599        0.7181119628       -0.0384296747
  14
        -22.67928579
 C          0.0191468377        0.4907392129       -0.3694937384
 C         -1.3768246018       -0.0082079506       -0.7722591684
 C          1.0420881951       -0.6555082843       -0.2605272328
 O         -0.0466818410        1.1720385865        0.8639643773
 O          2.3099036999       -0.1575456856        0.0679492715
 O         -1.9511625643       -0.7938726818        0.2478823154
 H         -1.5222626288       -1.6561113955        0.2669558685
 H         -0.7154078849        0.7229651253        1.4011128936
 H          2.1793702447        0.5288082824        0.7371990090
 H          0.3823895812        1.2143683401       -1.1072290061
 H         -2.0427299341        0.8504073637       -0.8879635573
 H         -1.3267243914       -0.5513990959       -1.7225751698
 H          1.1407920324       -1.1776030563       -1.2152007422
 H          0.7117808738       -1.3722175083        0.5103966146
  14
        -22.67927689
 C          0.0645823588        0.6900816270       -0.3390271779
 C         -1.0890375494       -0.2886805921       -0.6239782000
 C          1.2742434389       -0.0421864556        0.2833966121
 O         -0.3685377942        1.7187989949        0.5133830280
 O          1.7188167860       -1.1261083761       -0.4952800553
 O         -1.5944168363       -0.8380154902        0.5704162201
 H         -0.9674012215       -1.4962525280        0.8904331986
 H         -0.9712438702        1.3185332986        1.1565347585
 H          2.0685692238       -0.7910825455       -1.3278704728
 H          0.3724586312        1.1660165078       -1.2782778133
 H         -1.9177588241        0.2604743187       -1.0770945557
 H         -0.7539520177       -1.0703003200       -1.3147056792
 H          0.9925958981       -0.4616354483        1.2537074930
 H          2.0754844166        0.6878238928        0.4539224537
  14
        -22.67925860
 C         -0.0329847744        0.8078229266       -0.4785632056
 C         -1.3357105651       -0.0113955193       -0.5874939192
 C          1.2089298533       -0.0862414187       -0.6540160976
 O          0.0406252013        1.4889483208        0.7436645494
 O          1.4439157079       -0.8429758048        0.5045786663
 O         -1.2668276965       -1.1556874026        0.2453957839
 H         -2.1262568694       -1.5867370925        0.2593524781
 H          0.4571101694        0.8810419414        1.3747443745
 H          0.6468591144       -1.3697357684        0.6664329312
 H         -0.0606922052        1.5684951205       -1.2669555261
 H         -2.1676073408        0.6351708499       -0.2847080731
 H         -1.4804108280       -0.3129643616       -1.6341972897
 H          2.0936161019        0.5401831177       -0.7900224870
 H          1.0853057390       -0.7274267742       -1.5367987394
  14
        -22.67903502
 C         -0.0713010114        0.4145635424       -0.1936999257
 C         -1.5167987109       -0.0011709868        0.1243187030
 C          0.9358853808       -0.6267141730        0.3135080382
 O          0.2266417668        1.6881922437        0.3379309530
 O          2.2410023247       -0.3200440129       -0.0993872007
 O         -1.8810524161       -1.2122879221       -0.4818170102
 H         -1.8136722417       -1.1188801642       -1.4388973823
 H          0.0974630544        1.6636993517        1.2940173931
 H          2.3694800453        0.6304241928        0.0207606685
 H          0.0523293505        0.5282502907       -1.2778129604
 H         -1.6249846528       -0.1662471907        1.2008879792
 H         -2.1920017597        0.8142468957       -0.1732167347
 H          0.6932856752       -1.6122209199       -0.0872588312
 H          0.8788918817       -0.6712751105        1.4140141453
  14
        -22.67901410
 C          0.0197196906        0.5085702811       -0.3749949011
 C         -1.3724187561        0.0186546522       -0.7863148647
 C          1.0182931629       -0.6573823913       -0.2839073589
 O         -0.0351910869        1.1760497872        0.8641892699
 O          2.2817067511       -0.1976274685        0.1164965856
 O         -1.8489579961       -0.8184046500        0.2493164331
 H         -2.7225209632       -1.1449113388        0.0151025669
 H         -0.5516833312        0.6137920788        1.4578383769
 H          2.1331903716        0.4708935904        0.8001788315
 H          0.3838141723        1.2448590104       -1.0989245611
 H         -2.0363019514        0.8841005727       -0.9140398452
 H         -1.3059738266       -0.5253745193       -1.7364288705
 H          1.1433287600       -1.1343726393       -1.2579143714
 H          0.6303854248       -1.3980387055        0.4315827213
  14
        -22.67894169
 C         -0.0165117475        0.1501850888       -0.2075566186
 C         -1.2574455551       -0.7482412733       -0.2472037082
 C          1.2849367866       -0.6534805261       -0.3111302468
 O         -0.0431361645        0.8688912268        1.0088701086
 O          2.4015196611        0.1861740751       -0.1267707368
 O         -2.4345894045        0.0089189224       -0.2136949342
 H         -2.3521395763        0.6258290300        0.5249153716
 H          0.8734327167        1.0644227112        1.2472836584
 H          2.4613053320        0.7990754876       -0.8690183012
 H         -0.0707766596        0.8661058831       -1.0475319229
 H         -1.2785761008       -1.3238691873       -1.1748992972
 H         -1.2160007000       -1.4411117239        0.6057872450
 H          1.3312352511       -1.1822667209       -1.2703393719
 H          1.3303710313       -1.3834824021        0.5005619420
  14
        -22.67891739
 C         -0.0041589319        0.1367971849       -0.1993607120
 C         -1.2470903554       -0.7575942005       -0.2578034929
 C          1.3005521783       -0.6654290688       -0.2475973732
 O         -0.0378364733        0.9375252912        0.9701416762
 O          2.4173986185        0.1817046557       -0.2229038894
 O         -2.4223568695        0.0065741640       -0.2392279138
 H         -2.2838703318        0.7430301980        0.3723840648
 H         -0.0200003933        0.3561849815        1.7419646876
 H          2.2224734662        0.9065349687        0.3872147558
 H         -0.0267908230        0.8537431856       -1.0265890334
 H         -1.2575237084       -1.3408213197       -1.1801087869
 H         -1.2293975014       -1.4540737646        0.5982563978
 H          1.3594163530       -1.2479035633       -1.1685423126
 H          1.3274807029       -1.3599319059        0.6098166471
  14
        -22.67872320
 C         -0.0473210052        0.5140423840       -0.3858705822
 C         -0.9432213067       -0.7286719442       -0.3534390476
 C          1.3996391452        0.1442322599       -0.7346688578
 O         -0.0227201779        1.1268163700        0.8847309076
 O          1.9573609015       -0.6941790085        0.2398541256
 O         -2.2117136024       -0.3210049542        0.1233754372
 H         -2.7958963091       -1.0841856838        0.1543123442
 H         -0.9358699823        1.1526151774        1.1975429262
 H          1.7914667856       -0.2670048871        1.0914986631
 H         -0.4412614214        1.2179476157       -1.1349623997
 H         -1.0170082158       -1.1523919544       -1.3622760530
 H         -0.4968607965       -1.4744063358        0.3171432827
 H          1.9822420815        1.0711254462       -0.8263166446
 H          1.4362930787       -0.3968371535       -1.6818703223
  14
        -22.67817875
 C          0.0862077242        0.6715718459       -0.3570777674
 C         -1.1236104185       -0.2389307420       -0.6183622167
 C          1.2435852691       -0.0972336321        0.3103165815
 O         -0.3728343391        1.7086261340        0.4893578820
 O          1.7546618370       -1.1224533205       -0.4979664999
 O         -1.5570357787       -0.8894909718        0.5459501066
 H         -1.7421924238       -0.2039148446        1.1996114903
 H          0.3563144892        2.3062766152        0.6833399752
 H          1.0970665894       -1.8251498040       -0.5497624576
 H          0.4292887638        1.0780060956       -1.3205207567
 H         -1.9271841861        0.3770589595       -1.0438352617
 H         -0.8620006794       -1.0166274030       -1.3390467938
 H          0.8957629845       -0.4869044836        1.2765189272
 H          2.0771516876        0.5891231042        0.4901189013
  14
        -22.67810274
 C         -0.0186486290        0.6853118886       -0.2797139712
 C         -1.2748855023       -0.0404230225        0.2394860730
 C          1.2617975423        0.0631176366        0.3023137927
 O         -0.0296928851        2.0410053412        0.0977413325
 O          1.4794239274       -1.2449859866       -0.1469037432
 O         -1.3264434682       -1.3940600108       -0.1449141087
 H         -1.3501310535       -1.4482812430       -1.1077688011
 H         -0.8248142141        2.4643677623       -0.2453684143
 H          0.7010095287       -1.7724550929        0.0870331226
 H          0.0187880154        0.5885811906       -1.3798990069
 H         -1.2720757753       -0.0374650156        1.3324336957
 H         -2.1736489159        0.4952230664       -0.1048727374
 H          1.2031914744        0.1093788243        1.3985036398
 H          2.1188149382        0.6567330275       -0.0225317972
  14
        -22.67800647
 C         -0.0481027664        0.4914819255       -0.3954866572
 C         -0.9586662353       -0.7361757731       -0.2674879864
 C          1.3899700595        0.0937253748       -0.7571675665
 O         -0.0598212729        1.1337182413        0.8728182129
 O          1.9649935202       -0.7005795107        0.2447195256
 O         -2.2719999189       -0.3722317642        0.0581095423
 H         -2.2276118559        0.1881596873        0.8429392351
 H          0.4096400020        1.9720226821        0.8068189198
 H          1.6781078243       -0.3406094153        1.0962111754
 H         -0.4541367556        1.1633025507       -1.1647843666
 H         -1.0051359216       -1.2609720326       -1.2228994630
 H         -0.5383592977       -1.4099189659        0.4914240649
 H          1.9887353271        1.0080943023       -0.9079617284
 H          1.4052293201       -0.4878460411       -1.6803360108
  14
        -22.67793927
 C         -0.0441029144        0.6810724560       -0.2581828238
 C         -1.2343469978       -0.0867303273        0.3420869048
 C          1.2974964624        0.0967532659        0.2199206662
 O         -0.1063624045        2.0536599788        0.0417067749
 O          1.3929206034       -1.2544401791       -0.1802998182
 O         -1.4067812896       -1.3552789515       -0.2216105600
 H         -0.5376916865       -1.7789599498       -0.2613926898
 H         -0.1712192309        2.1630613833        0.9978868808
 H          2.2729247615       -1.5852125964        0.0254435949
 H         -0.0930451879        0.6092279194       -1.3493599543
 H         -1.1000275824       -0.1596683956        1.4363116639
 H         -2.1535962739        0.4719665204        0.1432010082
 H          1.3549379530        0.1754235715        1.3178257068
 H          2.1091630295        0.6953571112       -0.2126818695
  14
        -22.67791677
 C         -0.0783040723        0.3974760532       -0.1891132366
 C         -1.5061376719       -0.0151471223        0.1941334925
 C          0.9455724336       -0.6556107410        0.2543416432
 O          0.2057190488        1.6399013595        0.4054846825
 O          2.2592160944       -0.2376154454       -0.0426497164
 O         -1.9477949838       -1.1471102696       -0.5099796591
 H         -2.0288215265       -0.9236783215       -1.4441908446
 H          1.1611273291        1.6732185130        0.5566891330
 H          2.3784990260       -0.2249051640       -0.9991511876
 H         -0.0223386968        0.5008838655       -1.2920147765
 H         -1.5357643048       -0.2827521162        1.2519453363
 H         -2.1675583771        0.8454431739        0.0347803259
 H          0.7104061580       -1.6226731888       -0.2042446056
 H          0.9086839711       -0.7595335714        1.3411821845
  14
        -22.67783209
 C         -0.0202277841        0.1855324469       -0.2177436698
 C         -1.2490701796       -0.7341933927       -0.3164186312
 C          1.2832470513       -0.5968998136       -0.4245600495
 O         -0.0299087252        0.8582919479        1.0246936058
 O          2.4144527708        0.1404212846       -0.0413241929
 O         -2.4335265984        0.0009993430       -0.1790866678
 H         -2.2943801758        0.6315564467        0.5412861557
 H          0.4429378812        0.3211859102        1.6714297210
 H          2.4062600720        0.9902606462       -0.4966491623
 H         -0.1130523392        0.9767356420       -0.9731701608
 H         -1.2853530082       -1.2233658979       -1.2916251843
 H         -1.1831157735       -1.5070954293        0.4663148290
 H          1.3512610988       -0.9204638623       -1.4725363202
 H          1.2867617850       -1.4867627566        0.2127264886
  14
        -22.67768586
 C         -0.0486954565        0.6677044739       -0.2728960277
 C         -1.2301672816       -0.0945683696        0.3527940604
 C          1.2925552561        0.1164640932        0.2211621242
 O         -0.0596013493        2.0348047950        0.0706224959
 O          1.3994854988       -1.2457000643       -0.1395580647
 O         -1.4085178053       -1.3593757265       -0.2201396075
 H         -0.5428655222       -1.7916058116       -0.2413065604
 H         -0.8956246238        2.4195652748       -0.2150523906
 H          2.2650202533       -1.5707174572        0.1272245587
 H         -0.0995920702        0.5372954834       -1.3658397987
 H         -1.0777351344       -0.1675268384        1.4407669324
 H         -2.1592640404        0.4575545946        0.1738152562
 H          1.3400178392        0.2394033492        1.3113853105
 H          2.0963618600        0.7106437650       -0.2299060668
  14
        -22.67765141
 C         -0.1246111054        0.6324680380       -0.2868580263
 C         -1.2161153353       -0.2592138077        0.3397417071
 C          1.0968529775       -0.2204977504       -0.6555833176
 O          0.2362367943        1.6748528023        0.5783653719
 O          1.7177748712       -0.6053025047        0.5565378069
 O         -1.7886155894       -1.1421005921       -0.5927487793
 H         -2.2476906572       -0.6284033025       -1.2666862309
 H          0.8064779562        1.2870085339        1.2558192408
 H          2.4375496611       -1.2111597415        0.3601415219
 H         -0.5221360061        1.1062883009       -1.1934304962
 H         -0.7693459033       -0.8849053993        1.1155667247
 H         -1.9758032320        0.3873856418        0.7985653678
 H          1.7912005661        0.3696967183       -1.2685486403
 H          0.7604562046       -1.0946248086       -1.2252986682
  14
        -22.67751505
 C         -0.0078637570        0.1443137680       -0.2049888729
 C         -1.2553175338       -0.7439712315       -0.2445488754
 C          1.2826498526       -0.6751182243       -0.2799304024
 O         -0.0586756322        0.8748052546        1.0019807953
 O          2.3587545933        0.2357763393       -0.1786607465
 O         -2.4251542899        0.0242867361       -0.2182529220
 H         -2.3274750892        0.6569315615        0.5052315729
 H          0.8018842476        1.2974883382        1.1100780039
 H          3.1895039253       -0.2451566570       -0.2399101222
 H         -0.0300042921        0.8419627973       -1.0570296858
 H         -1.2791698220       -1.3263316735       -1.1677396486
 H         -1.2239065517       -1.4306090037        0.6144077954
 H          1.3162561003       -1.2249294077       -1.2284201167
 H          1.3063526171       -1.3929312820        0.5515169079
  14
        -22.67745470
 C         -0.0797096772        0.3836306833       -0.1972864688
 C         -1.5070680111       -0.0451806026        0.1804533789
 C          0.9749482758       -0.6449486466        0.2444111408
 O          0.2393940782        1.6417675608        0.3597758185
 O          2.2652935832       -0.2164068294       -0.0954157232
 O         -1.9779401516       -1.1381169229       -0.5592517936
 H         -1.4250558029       -1.9079541106       -0.3875109518
 H          0.1009586134        1.6056441325        1.3143790558
 H          2.2876134361        0.7447893492        0.0163797886
 H         -0.0156312520        0.5241682161       -1.2812392477
 H         -1.5481589144       -0.2539004939        1.2626039272
 H         -2.1903304925        0.7789763764       -0.0400947939
 H          0.8220410573       -1.6063313523       -0.2520066787
 H          0.8980593020       -0.7925994940        1.3365833222
  14
        -22.67740730
 C          0.0221504484        0.4817855570       -0.3781540609
 C         -1.3656354507       -0.0474206175       -0.7909418262
 C          1.0561931337       -0.6499517590       -0.3099879764
 O         -0.0361126375        1.1357333587        0.8748899398
 O          2.3135832215       -0.1661626064        0.0840800939
 O         -1.9715656899       -0.7829234021        0.2465060066
 H         -2.2857227398       -0.1637104991        0.9157061855
 H         -0.2817003151        0.4728927033        1.5354191822
 H          2.1650173565        0.5216225432        0.7480577547
 H          0.3529294800        1.2437631265       -1.0895490507
 H         -2.0037456092        0.7912755741       -1.0929904232
 H         -1.2582243353       -0.7320844901       -1.6335468247
 H          1.1833887025       -1.1127561088       -1.2901674296
 H          0.6957406339       -1.4147247736        0.3973800860
  14
        -22.67728059
 C          0.0402723570        0.4175213867       -0.2099060699
 C         -0.8840552698       -0.6713709129        0.3483365535
 C          1.5111366548        0.1175846266        0.1178958165
 O         -0.3777391750        1.6414586984        0.3610083606
 O          1.9628410793       -1.0796969941       -0.4539888100
 O         -2.2031463671       -0.5109235858       -0.0957598622
 H         -2.4786388503        0.3824544104        0.1436166189
 H          0.2121708502        2.3476142653        0.0771198031
 H          1.8291389988       -1.0462999538       -1.4085014350
 H         -0.0868178615        0.4550221354       -1.3068432635
 H         -0.5488448991       -1.6507007868        0.0026786300
 H         -0.8311277659       -0.6383875278        1.4450124271
 H          1.6283667461       -0.0000813224        1.1977179498
 H          2.1338287661        0.9672240198       -0.2093417066
  14
        -22.67713699
 C         -0.1181419756        0.7402857344       -0.4082641535
 C         -1.2840669380       -0.0838637507        0.1785370117
 C          1.1377417915       -0.1305777526       -0.5960724075
 O          0.1309444385        1.7790324499        0.5196654103
 O          1.4224414224       -0.8992351540        0.5467152512
 O         -1.4021685847       -1.3613851179       -0.3783337643
 H         -0.6264684555       -1.8733757934       -0.1145801305
 H          0.7436834518        2.4130841373        0.1311367548
 H          1.4235595178       -0.3030081066        1.3064830554
 H         -0.4018685863        1.1516765475       -1.3869348608
 H         -1.1403571114       -0.1313265476        1.2662322496
 H         -2.2246473705        0.4334120760       -0.0177239288
 H          1.9901113704        0.5203434021       -0.8472331777
 H          0.9871816613       -0.8324932434       -1.4184982671
  14
        -22.67706369
 C          0.0511929817        0.3786321202       -0.2041809960
 C         -0.9309103894       -0.6856874122        0.3048327537
 C          1.5017485638        0.0614977496        0.1994243747
 O         -0.3799163588        1.6029116317        0.3605234351
 O          2.0617828375       -0.9890854112       -0.5420333332
 O         -2.2403411534       -0.4193051064       -0.1120317020
 H         -2.4307604862        0.4977365465        0.1231774490
 H          0.1915622775        2.3138078401        0.0530986532
 H          1.5759245654       -1.8014846432       -0.3646995074
 H         -0.0102176836        0.4239923136       -1.3028612175
 H         -0.6761278811       -1.6686592605       -0.0983670681
 H         -0.8713694161       -0.7162600066        1.4032203733
 H          1.5413618764       -0.1424423878        1.2789634893
 H          2.1321949540        0.9317563978       -0.0088184604
  14
        -22.67704644
 C         -0.0667335390        0.4023508399       -0.1961064962
 C         -1.5068543346        0.0121433009        0.1579578201
 C          0.9289332805       -0.6424861788        0.3152669035
 O          0.1916780058        1.6636295152        0.3669148614
 O          2.2179483880       -0.2430181692       -0.1098255662
 O         -1.9208657074       -1.1687296436       -0.4788206183
 H         -1.9151006149       -1.0263497281       -1.4323752359
 H          1.1439680835        1.8099328782        0.2997411538
 H          2.8613078515       -0.8956036756        0.1821517135
 H          0.0367169141        0.4564765124       -1.2950439307
 H         -1.5798224549       -0.1774200408        1.2305392263
 H         -2.1616515557        0.8568588783       -0.0899974366
 H          0.6607658461       -1.6256576589       -0.0893322799
 H          0.8774875169       -0.6796576848        1.4117005597
  14
        -22.67704412
 C         -0.0837601797        0.4077969300       -0.2044088536
 C         -1.5141167478        0.0224456501        0.1713373685
 C          0.9199791553       -0.6545209808        0.2611253156
 O          0.2150659859        1.6526343097        0.3797874964
 O          2.2401555200       -0.2592120289       -0.0388770889
 O         -1.8539934027       -1.1551819308       -0.5247932164
 H         -2.7681588536       -1.3801340377       -0.3235888916
 H          1.1740835278        1.6795992678        0.5078284338
 H          2.3545257946       -0.2599854377       -0.9960849835
 H         -0.0278625817        0.4881682726       -1.3046582713
 H         -1.5706237174       -0.1279031149        1.2577758497
 H         -2.1762309203        0.8539240803       -0.1003691261
 H          0.6694047545       -1.6204756574       -0.1892380193
 H          0.8793805277       -0.7423260085        1.3496050313
  14
        -22.67703634
 C         -0.0053463945        0.8178657618       -0.4631790673
 C         -1.1280730560       -0.2197249466       -0.6435755802
 C          1.3922015437        0.1422854731       -0.3572492413
 O         -0.2750160837        1.5962434450        0.6736228539
 O          1.3595370940       -1.2075562774        0.0702111064
 O         -1.3378408534       -0.9269722436        0.5521665413
 H         -0.4889554444       -1.3283368673        0.8033593812
 H         -0.6860436157        1.0109641338        1.3286824512
 H          1.1889892558       -1.7774305099       -0.6869723104
 H          0.0073331727        1.5082488225       -1.3128253840
 H         -2.0671727817        0.2942272053       -0.8605198726
 H         -0.8981786214       -0.8944501615       -1.4813461570
 H          1.9660994106        0.6846250117        0.3983641980
 H          1.9152575011        0.2233331346       -1.3151236112
  14
        -22.67698972
 C          0.0534378037        0.7552721959       -0.3773561318
 C         -1.1024594214       -0.2349999271       -0.6031660933
 C          1.2878206143        0.0386438147        0.2105524235
 O         -0.3391929041        1.8008316776        0.4752398557
 O          1.4553984896       -1.2153534992       -0.4196277476
 O         -1.3932823818       -0.9719622745        0.5598188890
 H         -0.6822438750       -1.6126385569        0.6766762287
 H         -0.8494707086        1.4070855702        1.1960379987
 H          2.3308803122       -1.5559810168       -0.2120021668
 H          0.3158479666        1.2164127546       -1.3339222522
 H         -2.0054508399        0.3312605158       -0.8441055010
 H         -0.8566066135       -0.8960856898       -1.4403513902
 H          1.1332322491       -0.0932186858        1.2930529473
 H          2.1663938579        0.6776889401        0.0708851865
  14
        -22.67688695
 C          0.0050497422        0.5430569992       -0.4200699258
 C         -1.4029619945        0.0314416858       -0.7482259804
 C          1.0172027839       -0.6206244889       -0.4097034987
 O         -0.0677288929        1.1538216819        0.8578618360
 O          2.2285564639       -0.2604841685        0.2155267614
 O         -1.8609781172       -0.8696996964        0.2218865210
 H         -1.7621403223       -0.4311587484        1.0770965875
 H          0.7908750475        1.5506656413        1.0437781604
 H          2.0867491200       -0.2467707726        1.1690464820
 H          0.3055635202        1.2882521549       -1.1699597748
 H         -2.0800842163        0.8932251959       -0.8263699979
 H         -1.3926777960       -0.5034721324       -1.6994292044
 H          1.2667715589       -0.8906108352       -1.4368819436
 H          0.5619944564       -1.4856825010        0.0863213595
  14
        -22.67686190
 C          0.0470138344        0.4311428867       -0.1831541792
 C         -0.8821967910       -0.7352050911        0.1836763985
 C          1.5068639094        0.0886014191        0.1797684126
 O         -0.3543542060        1.6358036327        0.4207315599
 O          2.0037944856       -1.0073555483       -0.5441528882
 O         -2.2404115865       -0.4298877505        0.0001680444
 H         -2.3695366853       -0.0843454811       -0.8902719562
 H         -0.6137159371        1.4565917123        1.3320267796
 H          2.0445223357       -0.7749493646       -1.4785979765
 H         -0.0137947975        0.6211161696       -1.2650056679
 H         -0.5867210845       -1.6210262905       -0.3955374162
 H         -0.7762626456       -0.9691616289        1.2472817306
 H          1.5694124908       -0.1973059413        1.2330652257
 H          2.1228464022        0.9847503221        0.0250636994
  14
        -22.67668804
 C         -0.1281545571        0.5948154636       -0.2895175524
 C         -1.2778911904       -0.2363230175        0.3082617231
 C          1.0795894634       -0.3164319755       -0.6107075043
 O          0.2393611417        1.6384598349        0.5824530463
 O          1.8615831748       -0.5575743063        0.5344532843
 O         -1.8288555438       -1.1368247109       -0.6170764056
 H         -2.2194409577       -0.6408103018       -1.3452825293
 H          0.4812017795        1.2389975321        1.4284718698
 H          2.3128426371        0.2632065062        0.7664855552
 H         -0.4681684723        1.0835556218       -1.2094770042
 H         -0.8911163677       -0.8503035247        1.1267605940
 H         -2.0429909224        0.4465395521        0.7052038783
 H          1.6886104583        0.1323925998       -1.4050899513
 H          0.7102587066       -1.2868282668       -0.9470280649
  14
        -22.67657625
 C          0.0521017206        0.4083678408       -0.2145358746
 C         -0.8961444799       -0.7345526457        0.1827829856
 C          1.5121025942        0.1160174278        0.1647717239
 O         -0.3338233101        1.5932882225        0.4381731331
 O          2.0576975150       -0.9800659599       -0.5227133937
 O         -2.2385511246       -0.3581337456       -0.0236424532
 H         -2.3887742504       -0.2350919599       -0.9683696167
 H         -1.2914348703        1.5461856743        0.5759709493
 H          1.6694444806       -1.7948257461       -0.1873180889
 H         -0.0056301731        0.5495658646       -1.3093049873
 H         -0.6541625336       -1.6486900636       -0.3744293614
 H         -0.8108504930       -0.9295844640        1.2554023417
 H          1.5752888078       -0.0152232863        1.2523830840
 H          2.1149246991        0.9829245696       -0.1122088271
  14
        -22.67656863
 C         -0.0783563420        0.4102687326       -0.2065454244
 C         -1.5192783692        0.0116314852        0.1313038982
 C          0.9224825172       -0.6465342219        0.2764025170
 O          0.2471088312        1.6719902984        0.3360597964
 O          2.2360711178       -0.2970934745       -0.0706104820
 O         -1.8176472314       -1.1905977783       -0.5340277304
 H         -2.7421405812       -1.4144849851       -0.3844772611
 H          0.1623961217        1.6272166389        1.2968960280
 H          2.3150152594        0.6621594952        0.0242526879
 H          0.0174691454        0.5252743715       -1.2902463766
 H         -1.6153579684       -0.1121512357        1.2229574379
 H         -2.1903050950        0.8216624389       -0.1864247506
 H          0.7013682204       -1.6076995572       -0.1885943086
 H          0.8325836106       -0.7506081086        1.3718423665
  14
        -22.67633730
 C         -0.1264193731        0.7545751314       -0.3588749435
 C         -1.2681110742       -0.1089326797        0.2229802764
 C          1.1369150994       -0.0877216954       -0.6067875502
 O          0.1470739427        1.8408607052        0.4883791211
 O          1.3876020740       -0.8886647380        0.5359675131
 O         -1.4233486617       -1.3413178885       -0.4264758143
 H         -0.6575038329       -1.8841367829       -0.2050515219
 H          0.4771487310        1.4863362056        1.3236612446
 H          2.2423552342       -1.3181934866        0.4368901933
 H         -0.4340931865        1.1926153620       -1.3129131193
 H         -1.0738550974       -0.2556692236        1.2949343579
 H         -2.2135221815        0.4255246888        0.1122696776
 H          1.9728033759        0.5973173550       -0.7946021205
 H          0.9894222512       -0.7155362913       -1.4953497231
  14
        -22.67629157
 C          0.0755864623        0.7189773730       -0.3464509837
 C         -1.1123558314       -0.2119158107       -0.6393727812
 C          1.2513450569       -0.0486799474        0.2939446341
 O         -0.3196541129        1.7821249586        0.4813857741
 O          1.6755578131       -1.1526708350       -0.4615434777
 O         -1.4354367482       -0.9171769576        0.5457784958
 H         -2.2571340187       -1.3985782026        0.4117510550
 H         -0.6907462213        1.3988949677        1.2865339340
 H          0.9989715919       -1.8358470563       -0.4007205451
 H          0.3995310492        1.1714802899       -1.2886235285
 H         -1.9579595937        0.4053374705       -0.9674640804
 H         -0.8505985095       -0.9054571009       -1.4499880347
 H          0.9553420291       -0.3552917121        1.3064084229
 H          2.1080331635        0.6243042188        0.3684654475
  14
        -22.67625774
 C         -0.1279813312        0.7399652806       -0.3561707865
 C         -1.2610840566       -0.1246301797        0.2340878653
 C          1.1463542230       -0.1012102686       -0.5890849112
 O          0.1258630840        1.8569640746        0.4668234660
 O          1.4695855179       -0.9349901233        0.5043392943
 O         -1.4538856634       -1.3310510769       -0.4478797391
 H         -0.6704964277       -1.8787654003       -0.3131343647
 H          0.2111444733        1.5614162432        1.3814844461
 H          1.8210659090       -0.3931129599        1.2184271430
 H         -0.4338952964        1.1543185957       -1.3210520744
 H         -1.0392701455       -0.3117499943        1.2978792573
 H         -2.2036602291        0.4238978956        0.1725992648
 H          1.9735932276        0.5772088917       -0.8276131590
 H          0.9867032522       -0.7662768662       -1.4402975604
  14
        -22.67624956
 C         -0.1297589770        0.6063508423       -0.3077482611
 C         -1.2106689678       -0.2812644836        0.3320284176
 C          1.1293738302       -0.2159178927       -0.6244224776
 O          0.2754328702        1.6437588871        0.5627819065
 O          1.7644378778       -0.6476013407        0.5454614759
 O         -1.7921025654       -1.1647609262       -0.5883748165
 H         -2.1886908878       -0.6617558336       -1.3091090576
 H         -0.4971208162        2.1367608447        0.8577037485
 H          1.8657544333        0.1287379875        1.1115360543
 H         -0.5236254316        1.0314457937       -1.2480622276
 H         -0.7536448426       -0.9055838671        1.1032280275
 H         -1.9779024667        0.3575974829        0.8011025162
 H          1.8095176215        0.3977645159       -1.2324000750
 H          0.8477430579       -1.1095026222       -1.1845801101
  14
        -22.67624909
 C         -0.0163612951        0.6669939224       -0.2749138387
 C         -1.3027125920       -0.0146134466        0.2227273387
 C          1.2301684335        0.0329824774        0.3598814486
 O         -0.0208099159        2.0329905166        0.0664716822
 O          1.5301631423       -1.2213076458       -0.1830224873
 O         -1.2895503067       -1.3705686842       -0.1714851225
 H         -2.0917453356       -1.7997219592        0.1429947699
 H         -0.7465104927        2.4742792514       -0.3888457326
 H          0.7098987071       -1.7339556744       -0.2059416218
 H          0.0517222835        0.5307821920       -1.3653719095
 H         -1.3502473095        0.0762944765        1.3168366001
 H         -2.1749378156        0.5029801551       -0.2059320596
 H          1.0847470088       -0.0268769298        1.4488344667
 H          2.0873959712        0.6805971497        0.1629498357
  14
        -22.67623857
 C         -0.1332802929        0.6842791544       -0.3323449210
 C         -1.2447905950       -0.1810716551        0.2915134669
 C          1.1331580486       -0.1476776103       -0.6241775902
 O          0.1631168017        1.7812140738        0.5045329993
 O          1.6293163190       -0.8038797639        0.5214972199
 O         -1.6493830911       -1.2448617050       -0.5255312067
 H         -0.9353568640       -1.8912406381       -0.5638345060
 H          0.2752987963        1.4584451757        1.4070133311
 H          2.0241328092       -0.1458328398        1.1040156034
 H         -0.4841089372        1.1135336072       -1.2754053429
 H         -0.8966727844       -0.5496492968        1.2692901532
 H         -2.1297334787        0.4409419628        0.4474204558
 H          1.8941261313        0.5123085456       -1.0574355810
 H          0.9001300517       -0.9285766539       -1.3511655830
  14
        -22.67605764
 C          0.0081244928        0.1769404212       -0.2385114816
 C         -1.2336970050       -0.7213630392       -0.3962560626
 C          1.2975334142       -0.6488668200       -0.2445900541
 O         -0.0252349109        0.8736388017        0.9979242157
 O          2.4332842939        0.1693735189       -0.2095654955
 O         -2.4220426336       -0.0272391938       -0.1006386125
 H         -2.4540558958        0.1248006791        0.8515192757
 H         -0.7431714259        1.5156934202        0.9609330869
 H          2.3276580489        0.7704559831        0.5388352283
 H          0.0415087261        0.9025448767       -1.0636496132
 H         -1.3179685973       -1.0491658233       -1.4330534366
 H         -1.1309724421       -1.6031867770        0.2488862885
 H          1.3602292285       -1.2375810916       -1.1613411975
 H          1.2813533878       -1.3276798563        0.6201831177
